# created with PyMOL 2.3.4
@<TRIPOS>MOLECULE
obj01
65 68 1                 
SMALL
USER_CHARGES
@<TRIPOS>ATOM
1	  N1	30.796	-8.943	-27.892	N.2	1	2GJ301	0.000	
2	  C2	31.703	-8.152	-27.324	C.2	1	2GJ301	0.000	
3	  C3	32.051	-8.696	-26.095	C.2	1	2GJ301	0.000	
4	  C4	31.287	-9.853	-25.943	C.2	1	2GJ301	0.000	
5	  O5	30.531	-10.021	-27.040	O.2	1	2GJ301	0.000	
6	  C6	31.355	-10.656	-24.813	C.2	1	2GJ301	0.000	
7	  C7	32.952	-8.192	-25.143	C.2	1	2GJ301	0.000	
8	  C8	32.294	-6.907	-27.953	C.2	1	2GJ301	0.000	
9	  O9	32.746	-6.009	-27.313	O.2	1	2GJ301	0.000	
10	 N10	32.338	-6.914	-29.399	N.pl3	1	2GJ301	0.000	
11	 C11	32.895	-5.789	-30.126	C.3	1	2GJ301	0.000	
12	 C12	32.809	-6.077	-31.621	C.3	1	2GJ301	0.000	
13	 C13	32.594	-11.086	-24.353	C.2	1	2GJ301	0.000	
14	 C14	32.685	-11.830	-23.202	C.2	1	2GJ301	0.000	
15	 C15	31.539	-12.179	-22.518	C.2	1	2GJ301	0.000	
16	 C16	30.305	-11.759	-22.960	C.2	1	2GJ301	0.000	
17	 C17	30.217	-10.994	-24.105	C.2	1	2GJ301	0.000	
18	 C18	32.459	-7.692	-23.946	C.2	1	2GJ301	0.000	
19	 C19	33.302	-7.211	-22.948	C.2	1	2GJ301	0.000	
20	 C20	34.676	-7.219	-23.134	C.2	1	2GJ301	0.000	
21	 C21	35.172	-7.728	-24.323	C.2	1	2GJ301	0.000	
22	 C22	34.329	-8.208	-25.321	C.2	1	2GJ301	0.000	
23	 C23	35.624	-6.676	-22.054	C.3	1	2GJ301	0.000	
24	 N24	35.701	-5.378	-22.048	N.3	1	2GJ301	0.000	
25	 C25	36.403	-4.869	-23.136	C.3	1	2GJ301	0.000	
26	 C26	36.731	-3.376	-23.034	C.3	1	2GJ301	0.000	
27	 O27	37.280	-3.018	-21.817	O.3	1	2GJ301	0.000	
28	 C28	36.561	-3.466	-20.731	C.3	1	2GJ301	0.000	
29	 C29	36.176	-4.949	-20.819	C.3	1	2GJ301	0.000	
30	 C30	34.015	-12.357	-22.704	C.3	1	2GJ301	0.000	
31	 C31	35.196	-11.451	-23.015	C.3	1	2GJ301	0.000	
32	 C32	34.197	-13.718	-23.376	C.3	1	2GJ301	0.000	
33	 O33	28.974	-10.579	-24.565	O.3	1	2GJ301	0.000	
34	 O34	31.602	-12.939	-21.366	O.3	1	2GJ301	0.000	
35	 H10	32.013	-7.590	-29.836	 H	1	2GJ301	0.000	
36	 H13	33.365	-10.854	-24.816	 H	1	2GJ301	0.000	
37	 H16	29.537	-11.990	-22.491	 H	1	2GJ301	0.000	
38	 H18	31.541	-7.683	-23.804	 H	1	2GJ301	0.000	
39	 H19	32.943	-6.871	-22.161	 H	1	2GJ301	0.000	
40	 H21	36.090	-7.736	-24.465	 H	1	2GJ301	0.000	
41	 H22	34.689	-8.547	-26.107	 H	1	2GJ301	0.000	
42	 H30	33.963	-12.482	-21.775	 H	1	2GJ301	0.000	
43	 H33	28.411	-11.174	-24.419	 H	1	2GJ301	0.000	
44	 H34	31.643	-12.436	-20.705	 H	1	2GJ301	0.000	
45	H111	32.406	-5.013	-29.927	 H	1	2GJ301	0.000	
46	H112	33.793	-5.668	-29.880	 H	1	2GJ301	0.000	
47	H121	32.526	-5.305	-32.073	 H	1	2GJ301	0.000	
48	H122	32.194	-6.771	-31.772	 H	1	2GJ301	0.000	
49	H123	33.654	-6.334	-31.940	 H	1	2GJ301	0.000	
50	H231	35.319	-6.964	-21.213	 H	1	2GJ301	0.000	
51	H232	36.481	-7.029	-22.200	 H	1	2GJ301	0.000	
52	H251	35.891	-5.007	-23.910	 H	1	2GJ301	0.000	
53	H252	37.209	-5.344	-23.217	 H	1	2GJ301	0.000	
54	H261	35.941	-2.886	-23.162	 H	1	2GJ301	0.000	
55	H262	37.341	-3.157	-23.714	 H	1	2GJ301	0.000	
56	H281	35.775	-2.957	-20.662	 H	1	2GJ301	0.000	
57	H282	37.077	-3.337	-19.957	 H	1	2GJ301	0.000	
58	H291	35.512	-5.116	-20.176	 H	1	2GJ301	0.000	
59	H292	36.934	-5.460	-20.606	 H	1	2GJ301	0.000	
60	H311	35.168	-10.697	-22.456	 H	1	2GJ301	0.000	
61	H312	35.997	-11.919	-22.868	 H	1	2GJ301	0.000	
62	H313	35.154	-11.177	-23.912	 H	1	2GJ301	0.000	
63	H321	33.614	-14.341	-22.983	 H	1	2GJ301	0.000	
64	H322	35.084	-14.006	-23.265	 H	1	2GJ301	0.000	
65	H323	34.004	-13.643	-24.292	 H	1	2GJ301	0.000	
@<TRIPOS>BOND
1 1 5 ar
2 1 2 ar
3 2 8 1
4 2 3 ar
5 3 4 ar
6 4 6 1
7 4 5 ar
8 6 13 ar
9 6 17 ar
10 3 7 1
11 8 9 2
12 8 10 1
13 10 11 1
14 10 35 1
15 11 12 1
16 11 45 1
17 11 46 1
18 12 47 1
19 12 48 1
20 12 49 1
21 13 14 ar
22 13 36 1
23 14 15 ar
24 14 30 1
25 15 16 ar
26 15 34 1
27 16 17 ar
28 16 37 1
29 17 33 1
30 7 18 ar
31 18 38 1
32 18 19 ar
33 19 39 1
34 19 20 ar
35 20 21 ar
36 21 22 ar
37 21 40 1
38 7 22 ar
39 22 41 1
40 20 23 1
41 23 50 1
42 23 51 1
43 23 24 1
44 24 25 1
45 25 26 1
46 25 52 1
47 25 53 1
48 26 27 1
49 26 54 1
50 26 55 1
51 27 28 1
52 28 29 1
53 28 56 1
54 28 57 1
55 24 29 1
56 29 58 1
57 29 59 1
58 30 31 1
59 30 32 1
60 30 42 1
61 31 60 1
62 31 61 1
63 31 62 1
64 32 63 1
65 32 64 1
66 32 65 1
67 33 43 1
68 34 44 1
@<TRIPOS>SUBSTRUCTURE
1	2GJ301	1	GROUP	1 A	2GJ
