# created with PyMOL 2.3.4
@<TRIPOS>MOLECULE
obj02
92 94 2                 
SMALL
USER_CHARGES
@<TRIPOS>ATOM
1	  N1	18.950	19.127	-15.854	N.3	1	ARG492	0.000	
2	  N2	18.987	19.108	-15.845	N.3	1	ARG492	0.000	
3	  C1	18.333	20.254	-16.565	C.3	1	ARG492	0.000	
4	  C2	18.459	20.267	-16.559	C.3	1	ARG492	0.000	
5	  C3	16.974	20.540	-16.027	C.2	1	ARG492	0.000	
6	  C4	17.068	20.599	-16.053	C.2	1	ARG492	0.000	
7	  O1	15.958	20.572	-16.742	O.2	1	ARG492	0.000	
8	  O2	16.147	20.754	-16.838	O.2	1	ARG492	0.000	
9	  C5	18.240	19.925	-18.035	C.3	1	ARG492	0.000	
10	  C6	18.495	20.006	-18.088	C.3	1	ARG492	0.000	
11	  C7	19.608	19.912	-18.639	C.3	1	ARG492	0.000	
12	  C8	19.905	20.029	-18.631	C.3	1	ARG492	0.000	
13	  C9	19.542	19.289	-20.045	C.3	1	ARG492	0.000	
14	  C10	20.004	19.915	-20.176	C.3	1	ARG492	0.000	
15	  N3	20.692	19.428	-20.916	N.pl3	1	ARG492	0.000	
16	  N4	21.392	19.971	-20.622	N.pl3	1	ARG492	0.000	
17	  C11	21.759	18.633	-20.874	C.cat	1	ARG492	0.000	
18	  C12	21.841	19.673	-21.850	C.cat	1	ARG492	0.000	
19	  N5	21.858	17.611	-20.011	N.pl3	1	ARG492	0.000	
20	  N6	21.043	19.284	-22.868	N.pl3	1	ARG492	0.000	
21	  N7	22.712	18.856	-21.788	N.pl3	1	ARG492	0.000	
22	  N8	23.145	19.776	-22.067	N.pl3	1	ARG492	0.000	
23	  H1	19.167	19.411	-14.899	 H	1	ARG492	0.000	
24	  H2	19.140	19.440	-14.913	 H	1	ARG492	0.000	
25	  H3	20.683	20.174	-21.597	 H	1	ARG492	0.000	
26	  H4	22.080	20.262	-19.942	 H	1	ARG492	0.000	
27	  H5	22.672	17.013	-20.028	 H	1	ARG492	0.000	
28	  H6	21.119	17.439	-19.345	 H	1	ARG492	0.000	
29	  H7	21.443	19.076	-23.772	 H	1	ARG492	0.000	
30	  H8	20.047	19.201	-22.725	 H	1	ARG492	0.000	
31	  H9	22.611	19.613	-22.448	 H	1	ARG492	0.000	
32	  H10	23.532	18.267	-21.817	 H	1	ARG492	0.000	
33	  H11	23.760	20.068	-21.320	 H	1	ARG492	0.000	
34	  H12	23.524	19.563	-22.979	 H	1	ARG492	0.000	
35	  C13	24.636	11.914	-0.796	C.3	2	8E8701	0.000	
36	  C14	24.926	10.401	-1.225	C.3	2	8E8701	0.000	
37	  C15	14.681	8.437	10.029	C.2	2	8E8701	0.000	
38	  C16	14.539	8.013	8.709	C.2	2	8E8701	0.000	
39	  C17	15.731	7.994	10.795	C.2	2	8E8701	0.000	
40	  C18	15.458	7.201	8.143	C.2	2	8E8701	0.000	
41	  C19	16.634	7.082	10.226	C.2	2	8E8701	0.000	
42	  C20	18.227	4.860	6.454	C.2	2	8E8701	0.000	
43	  C21	18.403	7.301	6.655	C.2	2	8E8701	0.000	
44	  C22	18.766	4.955	5.197	C.2	2	8E8701	0.000	
45	  C23	19.004	7.377	5.430	C.2	2	8E8701	0.000	
46	  C24	24.944	7.933	1.767	C.3	2	8E8701	0.000	
47	  C25	23.791	6.994	2.161	C.3	2	8E8701	0.000	
48	  C26	24.375	9.395	1.601	C.3	2	8E8701	0.000	
49	  C27	22.234	8.540	0.826	C.3	2	8E8701	0.000	
50	  C28	23.702	9.561	-0.811	C.2	2	8E8701	0.000	
51	  C29	16.539	6.777	8.917	C.2	2	8E8701	0.000	
52	  C30	18.005	6.032	7.186	C.2	2	8E8701	0.000	
53	  N9	16.993	4.962	2.344	N.pl3	2	8E8701	0.000	
54	  N10	20.956	6.785	3.152	N.2	2	8E8701	0.000	
55	  O3	22.896	9.271	-1.719	O.2	2	8E8701	0.000	
56	  O4	17.473	5.899	8.446	O.3	2	8E8701	0.000	
57	  C31	19.109	6.221	4.675	C.2	2	8E8701	0.000	
58	  C32	19.757	6.277	3.360	C.2	2	8E8701	0.000	
59	  C33	22.532	7.127	1.261	C.3	2	8E8701	0.000	
60	  N11	21.240	6.660	1.801	N.2	2	8E8701	0.000	
61	  N12	23.477	9.237	0.497	N.pl3	2	8E8701	0.000	
62	  N13	17.996	4.906	0.251	N.2	2	8E8701	0.000	
63	  C34	19.029	5.210	-0.502	C.2	2	8E8701	0.000	
64	  N14	20.165	5.774	-0.209	N.2	2	8E8701	0.000	
65	  C35	20.287	6.087	1.106	C.2	2	8E8701	0.000	
66	  C36	19.244	5.770	2.045	C.2	2	8E8701	0.000	
67	  C37	18.035	5.202	1.583	C.2	2	8E8701	0.000	
68	  H13	16.159	4.555	1.945	 H	2	8E8701	0.000	
69	  H14	17.025	5.184	3.329	 H	2	8E8701	0.000	
70	  H15	25.522	12.487	-1.068	 H	2	8E8701	0.000	
71	  H16	25.829	10.030	-0.739	 H	2	8E8701	0.000	
72	  H17	25.073	10.340	-2.303	 H	2	8E8701	0.000	
73	  H18	24.385	11.815	0.260	 H	2	8E8701	0.000	
74	  H19	13.953	9.126	10.457	 H	2	8E8701	0.000	
75	  H20	13.677	8.340	8.127	 H	2	8E8701	0.000	
76	  H21	15.860	8.342	11.820	 H	2	8E8701	0.000	
77	  H22	15.358	6.884	7.105	 H	2	8E8701	0.000	
78	  H23	17.408	6.623	10.840	 H	2	8E8701	0.000	
79	  H24	17.975	3.887	6.877	 H	2	8E8701	0.000	
80	  H25	18.226	8.210	7.230	 H	2	8E8701	0.000	
81	  H26	18.929	4.056	4.603	 H	2	8E8701	0.000	
82	  H27	19.391	8.325	5.056	 H	2	8E8701	0.000	
83	  H28	25.388	7.600	0.829	 H	2	8E8701	0.000	
84	  H29	25.708	7.923	2.544	 H	2	8E8701	0.000	
85	  H30	23.488	7.274	3.170	 H	2	8E8701	0.000	
86	  H31	24.149	5.966	2.101	 H	2	8E8701	0.000	
87	  H32	25.143	10.151	1.440	 H	2	8E8701	0.000	
88	  H33	23.849	9.721	2.498	 H	2	8E8701	0.000	
89	  H34	21.735	9.066	1.640	 H	2	8E8701	0.000	
90	  H35	21.588	8.519	-0.052	 H	2	8E8701	0.000	
91	  H36	22.854	6.469	0.454	 H	2	8E8701	0.000	
92	  H37	18.915	4.944	-1.553	 H	2	8E8701	0.000	
@<TRIPOS>BOND
1 1 3 1
2 1 24 1
3 2 4 1
4 2 23 1
5 3 5 1
6 3 9 1
7 4 6 1
8 4 10 1
9 5 7 2
10 6 8 2
11 9 11 1
12 10 12 1
13 11 13 1
14 12 14 1
15 13 15 1
16 14 16 1
17 15 17 1
18 15 25 1
19 16 18 1
20 16 26 1
21 17 19 2
22 17 21 1
23 18 20 2
24 18 22 1
25 19 27 1
26 19 28 1
27 20 29 1
28 20 30 1
29 21 31 1
30 21 32 1
31 22 33 1
32 22 34 1
33 35 36 1
34 35 70 1
35 35 73 1
36 36 50 1
37 36 71 1
38 36 72 1
39 37 38 ar
40 37 39 ar
41 37 74 1
42 38 40 ar
43 38 75 1
44 39 41 ar
45 39 76 1
46 40 51 ar
47 40 77 1
48 41 51 ar
49 41 78 1
50 42 44 ar
51 42 52 ar
52 42 79 1
53 43 45 ar
54 43 52 ar
55 43 80 1
56 44 57 ar
57 44 81 1
58 45 57 ar
59 45 82 1
60 46 47 1
61 46 48 1
62 46 83 1
63 46 84 1
64 47 59 1
65 47 85 1
66 47 86 1
67 48 61 1
68 48 87 1
69 48 88 1
70 49 59 1
71 49 61 1
72 49 89 1
73 49 90 1
74 50 61 1
75 53 68 1
76 53 69 1
77 54 58 ar
78 54 60 ar
79 50 55 2
80 51 56 1
81 52 56 1
82 57 58 1
83 59 60 1
84 59 91 1
85 62 63 ar
86 62 67 ar
87 63 64 ar
88 63 92 1
89 64 65 ar
90 60 65 ar
91 65 66 ar
92 58 66 ar
93 66 67 ar
94 53 67 1
@<TRIPOS>SUBSTRUCTURE
1	ARG492	1	RESIDUE	1 A	ARG
2	8E8701	35	GROUP	1 A	8E8

