# created with PyMOL 2.3.4
@<TRIPOS>MOLECULE
1WS1_A
62 62 1                 
SMALL
USER_CHARGES
@<TRIPOS>ATOM
1	  N1	42.840	1.829	16.477	N.pl3	1	BB2400	0.000	
2	  O2	42.736	1.372	17.630	O.3	1	BB2400	0.000	
3	  C3	42.137	2.889	16.085	C.2	1	BB2400	0.000	
4	  O4	41.376	3.465	16.829	O.2	1	BB2400	0.000	
5	  C5	42.272	3.473	14.675	C.3	1	BB2400	0.000	
6	  C6	43.268	4.717	14.817	C.3	1	BB2400	0.000	
7	  C7	44.722	4.166	15.000	C.3	1	BB2400	0.000	
8	  C8	45.572	5.437	15.239	C.3	1	BB2400	0.000	
9	  C9	46.962	5.158	15.506	C.3	1	BB2400	0.000	
10	 C10	47.693	6.392	16.019	C.3	1	BB2400	0.000	
11	 C11	47.843	7.459	14.997	C.3	1	BB2400	0.000	
12	 C12	43.297	5.621	13.587	C.2	1	BB2400	0.000	
13	 O13	43.406	5.146	12.482	O.2	1	BB2400	0.000	
14	 N14	43.175	6.957	13.846	N.pl3	1	BB2400	0.000	
15	 C15	43.136	8.010	12.854	C.3	1	BB2400	0.000	
16	 C16	41.765	8.681	12.681	C.3	1	BB2400	0.000	
17	 C17	40.861	7.697	11.967	C.3	1	BB2400	0.000	
18	 C18	41.168	9.069	13.978	C.3	1	BB2400	0.000	
19	 C19	44.255	9.017	13.250	C.2	1	BB2400	0.000	
20	 O20	44.488	9.214	14.462	O.2	1	BB2400	0.000	
21	 N21	44.963	9.639	12.283	N.pl3	1	BB2400	0.000	
22	 C22	46.048	10.583	12.607	C.3	1	BB2400	0.000	
23	 C23	44.803	9.495	10.807	C.3	1	BB2400	0.000	
24	 C24	45.857	10.418	10.243	C.3	1	BB2400	0.000	
25	 C25	46.860	10.618	11.322	C.3	1	BB2400	0.000	
26	 C26	45.531	11.961	12.947	C.3	1	BB2400	0.000	
27	 O27	45.107	12.073	14.111	O.3	1	BB2400	0.000	
28	 H01	45.129	12.996	14.373	 H	1	BB2400	0.000	
29	 HN1	43.378	1.452	15.922	 H	1	BB2400	0.000	
30	 HO2	42.429	0.591	17.595	 H	1	BB2400	0.000	
31	  H6	42.952	5.239	15.572	 H	1	BB2400	0.000	
32	 H14	43.116	7.193	14.671	 H	1	BB2400	0.000	
33	 H15	43.292	7.631	11.975	 H	1	BB2400	0.000	
34	 H16	41.872	9.497	12.168	 H	1	BB2400	0.000	
35	 H22	46.554	10.309	13.388	 H	1	BB2400	0.000	
36	 H51	41.410	3.754	14.330	 H	1	BB2400	0.000	
37	 H52	42.624	2.814	14.057	 H	1	BB2400	0.000	
38	 H71	45.020	3.681	14.215	 H	1	BB2400	0.000	
39	 H72	44.779	3.554	15.750	 H	1	BB2400	0.000	
40	 H81	45.199	5.931	15.986	 H	1	BB2400	0.000	
41	 H82	45.509	6.011	14.460	 H	1	BB2400	0.000	
42	 H91	47.391	4.841	14.696	 H	1	BB2400	0.000	
43	 H92	47.030	4.445	16.161	 H	1	BB2400	0.000	
44	H101	48.572	6.130	16.335	 H	1	BB2400	0.000	
45	H102	47.213	6.750	16.782	 H	1	BB2400	0.000	
46	H111	48.314	8.214	15.384	 H	1	BB2400	0.000	
47	H112	46.966	7.745	14.697	 H	1	BB2400	0.000	
48	H113	48.347	7.116	14.242	 H	1	BB2400	0.000	
49	H171	39.985	8.094	11.843	 H	1	BB2400	0.000	
50	H172	40.778	6.890	12.498	 H	1	BB2400	0.000	
51	H173	41.241	7.477	11.102	 H	1	BB2400	0.000	
52	H181	40.306	9.488	13.826	 H	1	BB2400	0.000	
53	H182	41.755	9.694	14.431	 H	1	BB2400	0.000	
54	H183	41.050	8.280	14.529	 H	1	BB2400	0.000	
55	H231	43.913	9.751	10.518	 H	1	BB2400	0.000	
56	H232	44.941	8.579	10.521	 H	1	BB2400	0.000	
57	H241	45.467	11.264	9.973	 H	1	BB2400	0.000	
58	H242	46.270	10.031	9.455	 H	1	BB2400	0.000	
59	H251	47.534	9.921	11.311	 H	1	BB2400	0.000	
60	H252	47.324	11.464	11.220	 H	1	BB2400	0.000	
61	H261	44.818	12.189	12.330	 H	1	BB2400	0.000	
62	H262	46.243	12.606	12.809	 H	1	BB2400	0.000	
@<TRIPOS>BOND
1 1 2 1
2 1 3 1
3 1 29 1
4 2 30 1
5 3 4 2
6 3 5 1
7 5 6 1
8 5 36 1
9 5 37 1
10 6 7 1
11 6 12 1
12 6 31 1
13 7 8 1
14 7 38 1
15 7 39 1
16 8 9 1
17 8 40 1
18 8 41 1
19 9 10 1
20 9 42 1
21 9 43 1
22 10 11 1
23 10 44 1
24 10 45 1
25 11 46 1
26 11 47 1
27 11 48 1
28 12 13 2
29 12 14 1
30 14 15 1
31 14 32 1
32 15 16 1
33 15 19 1
34 15 33 1
35 16 17 1
36 16 18 1
37 16 34 1
38 17 49 1
39 17 50 1
40 17 51 1
41 18 52 1
42 18 53 1
43 18 54 1
44 19 20 2
45 19 21 1
46 21 22 1
47 21 23 1
48 22 25 1
49 22 26 1
50 22 35 1
51 23 24 1
52 23 55 1
53 23 56 1
54 24 25 1
55 24 57 1
56 24 58 1
57 25 59 1
58 25 60 1
59 26 27 1
60 26 61 1
61 26 62 1
62 27 28 1
@<TRIPOS>SUBSTRUCTURE
1	BB2400	1	GROUP	1 A	BB2
