# created with PyMOL 2.3.4
@<TRIPOS>MOLECULE
1PY2
82 85 1                 
SMALL
USER_CHARGES
@<TRIPOS>ATOM
1	  N1	28.984	6.908	-3.528	N.pl3	1	FRH201	0.000	
2	  N2	31.732	10.524	-0.233	N.pl3	1	FRH201	0.000	
3	  N3	37.157	11.668	6.395	N.2	1	FRH201	0.000	
4	  N4	28.653	7.726	-1.393	N.pl3	1	FRH201	0.000	
5	  N5	30.514	8.350	-2.609	N.pl3	1	FRH201	0.000	
6	  N6	33.802	12.099	2.336	N.pl3	1	FRH201	0.000	
7	  N7	37.234	11.232	7.619	N.2	1	FRH201	0.000	
8	 C10	36.753	11.885	10.452	C.2	1	FRH201	0.000	
9	 C11	35.261	11.804	7.129	C.2	1	FRH201	0.000	
10	 C12	36.386	12.772	17.561	C.2	1	FRH201	0.000	
11	 C13	36.020	11.488	8.102	C.2	1	FRH201	0.000	
12	 C14	32.695	11.726	1.675	C.2	1	FRH201	0.000	
13	 C15	34.167	12.997	4.552	C.3	1	FRH201	0.000	
14	 C16	34.469	10.699	11.485	C.2	1	FRH201	0.000	
15	 C17	29.382	7.664	-2.507	C.2	1	FRH201	0.000	
16	 C18	36.356	11.900	15.646	C.2	1	FRH201	0.000	
17	 C19	35.497	12.248	4.622	C.3	1	FRH201	0.000	
18	 C20	35.322	15.040	17.249	C.2	1	FRH201	0.000	
19	 C21	34.640	10.781	10.110	C.2	1	FRH201	0.000	
20	 C22	33.844	13.352	3.099	C.3	1	FRH201	0.000	
21	 C23	35.903	11.919	6.040	C.2	1	FRH201	0.000	
22	 C24	35.784	11.379	9.585	C.2	1	FRH201	0.000	
23	 C25	30.621	9.741	-2.219	C.3	1	FRH201	0.000	
24	 C26	31.885	9.975	-1.440	C.2	1	FRH201	0.000	
25	 C27	35.377	10.976	3.783	C.3	1	FRH201	0.000	
26	 C28	32.747	10.486	0.808	C.3	1	FRH201	0.000	
27	 C29	35.041	11.314	2.330	C.3	1	FRH201	0.000	
28	 C30	35.432	11.201	12.349	C.2	1	FRH201	0.000	
29	 C31	35.868	13.758	16.807	C.2	1	FRH201	0.000	
30	 C32	30.559	10.621	-3.465	C.3	1	FRH201	0.000	
31	 C33	36.580	11.801	11.831	C.2	1	FRH201	0.000	
32	 C34	38.383	11.828	5.623	C.3	1	FRH201	0.000	
33	 C35	36.290	10.801	14.613	C.3	1	FRH201	0.000	
34	 C36	29.883	11.967	-3.219	C.3	1	FRH201	0.000	
35	 C37	30.246	12.952	-4.323	C.3	1	FRH201	0.000	
36	 C38	28.368	11.841	-3.105	C.3	1	FRH201	0.000	
37	 C39	36.762	11.796	16.838	C.2	1	FRH201	0.000	
38	 O40	34.610	15.692	16.454	O.co2	1	FRH201	0.000	
39	 O41	35.577	15.455	18.402	O.co2	1	FRH201	0.000	
40	 O42	35.950	13.272	15.455	O.2	1	FRH201	0.000	
41	 O43	35.231	11.105	13.704	O.3	1	FRH201	0.000	
42	 O44	31.650	12.356	1.740	O.2	1	FRH201	0.000	
43	 O45	32.968	9.661	-1.913	O.2	1	FRH201	0.000	
44	 H01	29.541	6.862	-4.370	 H	1	FRH201	0.000	
45	 H02	30.861	10.993	-0.031	 H	1	FRH201	0.000	
46	 H03	28.960	8.299	-0.620	 H	1	FRH201	0.000	
47	 H04	27.794	7.200	-1.322	 H	1	FRH201	0.000	
48	 H05	31.333	7.884	-2.973	 H	1	FRH201	0.000	
49	 H06	37.652	12.349	10.047	 H	1	FRH201	0.000	
50	 H07	34.186	11.958	7.221	 H	1	FRH201	0.000	
51	 H08	36.472	12.805	18.647	 H	1	FRH201	0.000	
52	 H09	34.241	13.914	5.137	 H	1	FRH201	0.000	
53	 H10	33.375	12.366	4.955	 H	1	FRH201	0.000	
54	 H11	36.281	12.893	4.226	 H	1	FRH201	0.000	
55	 H12	32.888	13.872	3.035	 H	1	FRH201	0.000	
56	 H13	28.126	6.380	-3.461	 H	1	FRH201	0.000	
57	 H14	34.615	14.008	2.696	 H	1	FRH201	0.000	
58	 H15	29.787	10.003	-1.568	 H	1	FRH201	0.000	
59	 H16	34.576	10.361	4.193	 H	1	FRH201	0.000	
60	 H17	36.323	10.435	3.815	 H	1	FRH201	0.000	
61	 H18	33.726	10.442	0.331	 H	1	FRH201	0.000	
62	 H19	32.583	9.608	1.433	 H	1	FRH201	0.000	
63	 H20	35.852	11.879	1.870	 H	1	FRH201	0.000	
64	 H21	34.899	10.398	1.757	 H	1	FRH201	0.000	
65	 H22	29.962	10.090	-4.206	 H	1	FRH201	0.000	
66	 H23	31.576	10.802	-3.813	 H	1	FRH201	0.000	
67	 H24	37.338	12.202	12.503	 H	1	FRH201	0.000	
68	 H25	39.197	11.303	6.122	 H	1	FRH201	0.000	
69	 H26	38.241	11.413	4.625	 H	1	FRH201	0.000	
70	 H27	38.628	12.887	5.545	 H	1	FRH201	0.000	
71	 H28	36.107	9.841	15.096	 H	1	FRH201	0.000	
72	 H29	37.235	10.744	14.073	 H	1	FRH201	0.000	
73	 H30	30.251	12.342	-2.264	 H	1	FRH201	0.000	
74	 H31	31.268	12.765	-4.654	 H	1	FRH201	0.000	
75	 H32	29.563	12.825	-5.163	 H	1	FRH201	0.000	
76	 H33	30.168	13.970	-3.942	 H	1	FRH201	0.000	
77	 H34	27.898	12.331	-3.958	 H	1	FRH201	0.000	
78	 H35	28.090	10.787	-3.094	 H	1	FRH201	0.000	
79	 H36	28.032	12.315	-2.183	 H	1	FRH201	0.000	
80	 H37	37.365	10.965	17.204	 H	1	FRH201	0.000	
81	 H38	33.569	10.236	11.890	 H	1	FRH201	0.000	
82	 H39	33.880	10.378	9.441	 H	1	FRH201	0.000	
@<TRIPOS>BOND
1 1 44 1
2 1 56 1
3 2 26 1
4 2 45 1
5 3 32 1
6 4 46 1
7 4 47 1
8 5 15 1
9 5 48 1
10 6 20 1
11 6 27 1
12 3 7 ar
13 8 31 ar
14 8 49 1
15 9 11 ar
16 9 50 1
17 10 51 1
18 7 11 ar
19 11 22 1
20 6 12 1
21 12 42 2
22 13 17 1
23 13 52 1
24 13 53 1
25 14 28 ar
26 14 81 1
27 1 15 ar
28 4 15 ar
29 16 37 ar
30 16 40 ar
31 17 21 1
32 17 25 1
33 17 54 1
34 18 38 ar
35 18 39 ar
36 14 19 ar
37 19 82 1
38 13 20 1
39 20 55 1
40 20 57 1
41 3 21 ar
42 9 21 ar
43 8 22 ar
44 19 22 ar
45 5 23 1
46 23 30 1
47 23 58 1
48 2 24 1
49 23 24 1
50 25 27 1
51 25 59 1
52 25 60 1
53 12 26 1
54 26 61 1
55 26 62 1
56 27 63 1
57 27 64 1
58 28 31 ar
59 28 41 1
60 10 29 ar
61 18 29 1
62 30 34 1
63 30 65 1
64 30 66 1
65 31 67 1
66 32 68 1
67 32 69 1
68 32 70 1
69 16 33 1
70 33 71 1
71 33 72 1
72 34 35 1
73 34 36 1
74 34 73 1
75 35 74 1
76 35 75 1
77 35 76 1
78 36 77 1
79 36 78 1
80 36 79 1
81 10 37 ar
82 37 80 1
83 29 40 ar
84 33 41 1
85 24 43 2
@<TRIPOS>SUBSTRUCTURE
1	FRH201	1	GROUP	1 A	FRH
