# created with PyMOL 2.3.4
@<TRIPOS>MOLECULE
6O0K
113 120 1               
SMALL
USER_CHARGES
@<TRIPOS>ATOM
1	   N	-15.744	3.650	-15.461	N.3	1	LBM301	0.000	
2	   C	-12.377	6.743	-20.249	C.3	1	LBM301	0.000	
3	   O	-18.833	3.961	-6.668	O.2	1	LBM301	0.000	
4	  C1	-13.032	6.096	-19.029	C.3	1	LBM301	0.000	
5	  N1	-16.299	3.956	-12.630	N.pl3	1	LBM301	0.000	
6	  O1	-18.660	5.865	-4.468	O.2	1	LBM301	0.000	
7	  C2	-14.451	5.636	-19.379	C.3	1	LBM301	0.000	
8	  N2	-17.170	5.496	-6.444	N.pl3	1	LBM301	0.000	
9	  O2	-16.251	6.423	-4.400	O.2	1	LBM301	0.000	
10	  C3	-15.181	5.084	-18.163	C.3	1	LBM301	0.000	
11	  N3	-15.932	-0.024	-3.108	N.pl3	1	LBM301	0.000	
12	  O3	-15.061	-4.812	-1.733	O.3	1	LBM301	0.000	
13	  C4	-14.324	4.038	-17.495	C.3	1	LBM301	0.000	
14	  N4	-13.869	1.997	-3.491	N.2	1	LBM301	0.000	
15	  O4	-13.510	0.888	-3.144	O.2	1	LBM301	0.000	
16	  C5	-12.985	3.894	-17.766	C.3	1	LBM301	0.000	
17	  N5	-17.678	-0.943	-7.043	N.2	1	LBM301	0.000	
18	  O5	-13.085	2.926	-3.666	O.2	1	LBM301	0.000	
19	  C6	-12.220	4.870	-18.604	C.3	1	LBM301	0.000	
20	  N6	-15.525	-1.583	-6.106	N.pl3	1	LBM301	0.000	
21	  O6	-18.411	2.202	-8.721	O.3	1	LBM301	0.000	
22	  C7	-12.176	2.749	-17.301	C.2	1	LBM301	0.000	
23	  C8	-11.499	2.799	-16.084	C.2	1	LBM301	0.000	
24	  C9	-10.710	1.751	-15.672	C.2	1	LBM301	0.000	
25	 C10	-10.578	0.631	-16.479	C.2	1	LBM301	0.000	
26	 C11	-11.257	0.563	-17.688	C.2	1	LBM301	0.000	
27	 C12	-12.068	1.601	-18.086	C.2	1	LBM301	0.000	
28	 C13	-15.016	3.049	-16.596	C.3	1	LBM301	0.000	
29	 C14	-14.826	4.386	-14.562	C.3	1	LBM301	0.000	
30	 C15	-15.567	4.997	-13.367	C.3	1	LBM301	0.000	
31	 C16	-17.193	3.210	-13.518	C.3	1	LBM301	0.000	
32	 C17	-16.415	2.594	-14.667	C.3	1	LBM301	0.000	
33	 C18	-16.706	4.120	-11.318	C.2	1	LBM301	0.000	
34	 C19	-17.374	3.104	-10.661	C.2	1	LBM301	0.000	
35	 C20	-17.768	3.250	-9.353	C.2	1	LBM301	0.000	
36	 C21	-17.503	4.407	-8.620	C.2	1	LBM301	0.000	
37	 C22	-16.797	5.423	-9.278	C.2	1	LBM301	0.000	
38	 C23	-16.412	5.288	-10.599	C.2	1	LBM301	0.000	
39	 C24	-17.906	4.594	-7.187	C.2	1	LBM301	0.000	
40	 C25	-16.930	3.891	-4.309	C.2	1	LBM301	0.000	
41	 C26	-15.600	3.560	-4.052	C.2	1	LBM301	0.000	
42	 C27	-15.290	2.265	-3.678	C.2	1	LBM301	0.000	
43	 C28	-16.272	1.248	-3.534	C.2	1	LBM301	0.000	
44	 C29	-17.597	1.627	-3.827	C.2	1	LBM301	0.000	
45	 C30	-17.925	2.938	-4.187	C.2	1	LBM301	0.000	
46	 C31	-16.871	-1.130	-2.975	C.3	1	LBM301	0.000	
47	 C32	-16.274	-2.217	-2.092	C.3	1	LBM301	0.000	
48	 C33	-17.056	-3.520	-2.213	C.3	1	LBM301	0.000	
49	 C34	-16.414	-4.586	-1.351	C.3	1	LBM301	0.000	
50	 C35	-14.299	-3.618	-1.540	C.3	1	LBM301	0.000	
51	 C36	-14.820	-2.499	-2.411	C.3	1	LBM301	0.000	
52	 C37	-17.698	1.241	-8.034	C.2	1	LBM301	0.000	
53	 C38	-18.310	0.057	-7.672	C.2	1	LBM301	0.000	
54	 C39	-16.385	-0.706	-6.699	C.2	1	LBM301	0.000	
55	 C40	-15.690	0.485	-6.997	C.2	1	LBM301	0.000	
56	 C41	-16.360	1.475	-7.708	C.2	1	LBM301	0.000	
57	 C42	-14.325	0.282	-6.522	C.2	1	LBM301	0.000	
58	 C43	-14.280	-0.975	-6.005	C.2	1	LBM301	0.000	
59	 C44	-13.073	7.104	-17.884	C.3	1	LBM301	0.000	
60	 H01	-12.965	6.519	-21.139	 H	1	LBM301	0.000	
61	 H02	-12.329	7.823	-20.107	 H	1	LBM301	0.000	
62	 H03	-14.376	4.840	-20.120	 H	1	LBM301	0.000	
63	 H04	-11.368	6.348	-20.371	 H	1	LBM301	0.000	
64	 H05	-15.011	6.484	-19.773	 H	1	LBM301	0.000	
65	 H06	-16.541	6.130	-6.915	 H	1	LBM301	0.000	
66	 H07	-16.123	4.635	-18.478	 H	1	LBM301	0.000	
67	 H08	-15.382	5.893	-17.461	 H	1	LBM301	0.000	
68	 H09	-14.965	-0.198	-2.873	 H	1	LBM301	0.000	
69	 H10	-13.724	4.809	-17.012	 H	1	LBM301	0.000	
70	 H11	-13.916	4.096	-17.237	 H	1	LBM301	0.000	
71	 H12	-11.396	5.235	-17.990	 H	1	LBM301	0.000	
72	 H13	-11.877	4.357	-19.502	 H	1	LBM301	0.000	
73	 H14	-15.754	-2.516	-5.794	 H	1	LBM301	0.000	
74	 H15	-11.596	3.681	-15.450	 H	1	LBM301	0.000	
75	 H16	-10.190	1.800	-14.715	 H	1	LBM301	0.000	
76	 H17	-9.941	-0.196	-16.164	 H	1	LBM301	0.000	
77	 H18	-11.147	-0.315	-18.324	 H	1	LBM301	0.000	
78	 H19	-12.628	1.526	-19.018	 H	1	LBM301	0.000	
79	 H20	-15.764	2.547	-17.210	 H	1	LBM301	0.000	
80	 H21	-14.264	2.369	-16.196	 H	1	LBM301	0.000	
81	 H22	-14.374	5.198	-15.131	 H	1	LBM301	0.000	
82	 H23	-14.066	3.698	-14.192	 H	1	LBM301	0.000	
83	 H24	-16.279	5.737	-13.734	 H	1	LBM301	0.000	
84	 H25	-14.846	5.470	-12.700	 H	1	LBM301	0.000	
85	 H26	-17.935	3.896	-13.925	 H	1	LBM301	0.000	
86	 H27	-17.683	2.418	-12.951	 H	1	LBM301	0.000	
87	 H28	-17.107	2.053	-15.312	 H	1	LBM301	0.000	
88	 H29	-15.664	1.912	-14.268	 H	1	LBM301	0.000	
89	 H30	-17.591	2.175	-11.188	 H	1	LBM301	0.000	
90	 H31	-16.547	6.336	-8.738	 H	1	LBM301	0.000	
91	 H32	-15.873	6.100	-11.088	 H	1	LBM301	0.000	
92	 H33	-14.816	4.311	-4.145	 H	1	LBM301	0.000	
93	 H34	-18.387	0.879	-3.772	 H	1	LBM301	0.000	
94	 H35	-18.965	3.209	-4.371	 H	1	LBM301	0.000	
95	 H36	-17.077	-1.544	-3.962	 H	1	LBM301	0.000	
96	 H37	-17.796	-0.767	-2.527	 H	1	LBM301	0.000	
97	 H38	-16.338	-1.834	-1.073	 H	1	LBM301	0.000	
98	 H39	-17.051	-3.847	-3.253	 H	1	LBM301	0.000	
99	 H40	-18.083	-3.358	-1.885	 H	1	LBM301	0.000	
100	 H41	-16.969	-5.515	-1.482	 H	1	LBM301	0.000	
101	 H42	-16.441	-4.266	-0.309	 H	1	LBM301	0.000	
102	 H43	-13.263	-3.818	-1.814	 H	1	LBM301	0.000	
103	 H44	-14.364	-3.317	-0.494	 H	1	LBM301	0.000	
104	 H45	-14.235	-1.600	-2.220	 H	1	LBM301	0.000	
105	 H46	-14.730	-2.786	-3.459	 H	1	LBM301	0.000	
106	 H47	-19.366	-0.071	-7.911	 H	1	LBM301	0.000	
107	 H48	-15.860	2.399	-8.000	 H	1	LBM301	0.000	
108	 H49	-13.504	0.997	-6.572	 H	1	LBM301	0.000	
109	 H50	-13.393	-1.439	-5.573	 H	1	LBM301	0.000	
110	 H51	-14.011	7.658	-17.921	 H	1	LBM301	0.000	
111	 H52	-13.000	6.577	-16.933	 H	1	LBM301	0.000	
112	 H53	-12.238	7.798	-17.980	 H	1	LBM301	0.000	
113	   S	-17.296	5.555	-4.845	S.O2	1	LBM301	0.000	
@<TRIPOS>BOND
1 2 4 1
2 2 60 1
3 2 61 1
4 2 63 1
5 4 7 1
6 4 19 1
7 4 59 1
8 6 113 2
9 7 10 1
10 7 62 1
11 7 64 1
12 8 65 1
13 8 113 1
14 9 113 2
15 10 13 1
16 10 66 1
17 10 67 1
18 11 68 1
19 13 16 1
20 13 69 1
21 14 15 ar
22 14 18 ar
23 16 19 1
24 16 22 1
25 16 70 1
26 19 71 1
27 19 72 1
28 20 73 1
29 22 23 ar
30 23 24 ar
31 23 74 1
32 24 75 1
33 24 25 ar
34 25 76 1
35 25 26 ar
36 26 27 ar
37 26 77 1
38 22 27 ar
39 27 78 1
40 1 28 1
41 13 28 1
42 28 79 1
43 28 80 1
44 1 29 1
45 29 30 1
46 29 81 1
47 29 82 1
48 5 30 1
49 30 83 1
50 30 84 1
51 5 31 1
52 31 32 1
53 31 85 1
54 31 86 1
55 1 32 1
56 32 87 1
57 32 88 1
58 5 33 1
59 33 34 ar
60 34 35 ar
61 34 89 1
62 21 35 1
63 35 36 ar
64 36 37 ar
65 37 38 ar
66 37 90 1
67 33 38 ar
68 38 91 1
69 3 39 2
70 8 39 1
71 36 39 1
72 40 41 ar
73 40 45 ar
74 40 113 1
75 41 42 ar
76 41 92 1
77 14 42 1
78 11 43 1
79 42 43 ar
80 43 44 ar
81 44 45 ar
82 44 93 1
83 45 94 1
84 11 46 1
85 46 47 1
86 46 95 1
87 46 96 1
88 47 48 1
89 47 51 1
90 47 97 1
91 48 49 1
92 48 98 1
93 48 99 1
94 12 49 1
95 49 100 1
96 49 101 1
97 12 50 1
98 50 51 1
99 50 102 1
100 50 103 1
101 51 104 1
102 51 105 1
103 21 52 1
104 52 53 ar
105 52 56 ar
106 17 53 ar
107 53 106 1
108 17 54 ar
109 20 54 ar
110 54 55 ar
111 55 56 ar
112 55 57 ar
113 56 107 1
114 57 58 ar
115 57 108 1
116 20 58 ar
117 58 109 1
118 59 110 1
119 59 111 1
120 59 112 1
@<TRIPOS>SUBSTRUCTURE
1	LBM301	1	GROUP	1 A	LBM
