# created with PyMOL 2.3.4
@<TRIPOS>MOLECULE
1q0y
42 46 1                 
SMALL
USER_CHARGES
@<TRIPOS>ATOM
1	  C1	52.889	56.876	6.111	C.2	1	MOI401	0.000	
2	  N1	52.862	57.438	10.978	N.3	1	MOI401	0.000	
3	  O1	55.707	54.704	4.926	O.3	1	MOI401	0.000	
4	  C2	52.593	58.125	8.458	C.3	1	MOI401	0.000	
5	  O2	58.577	57.099	7.773	O.3	1	MOI401	0.000	
6	  C3	53.292	57.147	7.454	C.2	1	MOI401	0.000	
7	  O3	56.453	55.336	7.749	O.3	1	MOI401	0.000	
8	  C4	54.490	56.543	7.888	C.2	1	MOI401	0.000	
9	  C5	55.140	56.671	9.260	C.3	1	MOI401	0.000	
10	  C6	54.939	58.162	9.737	C.3	1	MOI401	0.000	
11	  C7	54.484	55.671	10.281	C.3	1	MOI401	0.000	
12	  C8	53.040	56.011	10.627	C.3	1	MOI401	0.000	
13	  C9	51.423	57.620	11.253	C.3	1	MOI401	0.000	
14	 C10	53.702	56.051	5.280	C.2	1	MOI401	0.000	
15	 C11	54.940	55.471	5.745	C.2	1	MOI401	0.000	
16	 C12	55.291	55.759	7.082	C.2	1	MOI401	0.000	
17	 C13	56.598	56.227	8.951	C.3	1	MOI401	0.000	
18	 C14	57.583	57.425	8.728	C.3	1	MOI401	0.000	
19	 C15	56.904	58.746	8.285	C.3	1	MOI401	0.000	
20	 C16	55.671	59.094	8.739	C.3	1	MOI401	0.000	
21	 C17	53.354	58.377	9.880	C.3	1	MOI401	0.000	
22	 H01	55.832	55.156	4.088	 H	1	MOI401	0.000	
23	 H02	51.962	57.299	5.722	 H	1	MOI401	0.000	
24	 H03	51.649	57.645	8.718	 H	1	MOI401	0.000	
25	 H04	52.488	59.090	7.962	 H	1	MOI401	0.000	
26	 H05	58.743	57.859	7.210	 H	1	MOI401	0.000	
27	 H06	55.377	58.399	10.707	 H	1	MOI401	0.000	
28	 H07	55.058	55.737	11.206	 H	1	MOI401	0.000	
29	 H08	54.509	54.671	9.849	 H	1	MOI401	0.000	
30	 H09	52.760	55.419	11.498	 H	1	MOI401	0.000	
31	 H10	52.410	55.781	9.768	 H	1	MOI401	0.000	
32	 H11	50.851	56.878	10.696	 H	1	MOI401	0.000	
33	 H12	51.238	57.495	12.320	 H	1	MOI401	0.000	
34	 H13	51.117	58.620	10.945	 H	1	MOI401	0.000	
35	 H14	53.378	55.851	4.259	 H	1	MOI401	0.000	
36	 H15	57.057	55.709	9.793	 H	1	MOI401	0.000	
37	 H16	58.022	57.596	9.711	 H	1	MOI401	0.000	
38	 H17	56.724	58.574	7.224	 H	1	MOI401	0.000	
39	 H18	57.578	59.552	8.574	 H	1	MOI401	0.000	
40	 H19	55.856	59.998	9.319	 H	1	MOI401	0.000	
41	 H20	55.027	59.194	7.866	 H	1	MOI401	0.000	
42	 H21	53.128	59.407	10.155	 H	1	MOI401	0.000	
@<TRIPOS>BOND
1 1 6 ar
2 1 14 ar
3 1 23 1
4 3 22 1
5 4 6 1
6 4 21 1
7 4 24 1
8 4 25 1
9 5 26 1
10 6 8 ar
11 8 9 1
12 8 16 ar
13 9 10 1
14 9 11 1
15 9 17 1
16 10 20 1
17 10 21 1
18 10 27 1
19 11 12 1
20 11 28 1
21 11 29 1
22 2 12 1
23 12 30 1
24 12 31 1
25 2 13 1
26 13 32 1
27 13 33 1
28 13 34 1
29 14 15 ar
30 14 35 1
31 3 15 1
32 15 16 ar
33 7 16 1
34 7 17 1
35 17 18 1
36 17 36 1
37 5 18 1
38 18 19 1
39 18 37 1
40 19 20 1
41 19 38 1
42 19 39 1
43 20 40 1
44 20 41 1
45 2 21 1
46 21 42 1
@<TRIPOS>SUBSTRUCTURE
1	MOI401	1	GROUP	1 H	MOI
