# created with PyMOL 2.3.4
@<TRIPOS>MOLECULE
2HYY_A
68 72 1                 
SMALL
USER_CHARGES
@<TRIPOS>ATOM
1	  C1	22.827	11.725	13.780	C.2	1	STI600	0.000	
2	  C2	22.176	10.931	12.842	C.2	1	STI600	0.000	
3	  N3	20.892	10.570	12.904	N.2	1	STI600	0.000	
4	  C4	20.140	11.001	13.947	C.2	1	STI600	0.000	
5	  C5	20.668	11.809	14.959	C.2	1	STI600	0.000	
6	  C6	22.036	12.177	14.839	C.2	1	STI600	0.000	
7	  C7	19.778	12.261	16.119	C.2	1	STI600	0.000	
8	  N8	18.433	12.021	15.977	N.2	1	STI600	0.000	
9	  C9	17.593	12.383	16.962	C.2	1	STI600	0.000	
10	 N10	18.047	12.944	18.070	N.2	1	STI600	0.000	
11	 C11	19.347	13.177	18.235	C.2	1	STI600	0.000	
12	 C12	20.266	12.828	17.228	C.2	1	STI600	0.000	
13	 N13	16.254	12.125	16.695	N.pl3	1	STI600	0.000	
14	 C14	15.346	12.271	17.710	C.2	1	STI600	0.000	
15	 C15	14.506	13.401	17.688	C.2	1	STI600	0.000	
16	 C16	13.560	13.633	18.698	C.2	1	STI600	0.000	
17	 C17	13.451	12.699	19.699	C.2	1	STI600	0.000	
18	 C18	14.285	11.539	19.714	C.2	1	STI600	0.000	
19	 C19	15.234	11.305	18.732	C.2	1	STI600	0.000	
20	 C20	16.075	10.053	18.815	C.3	1	STI600	0.000	
21	 N21	12.659	14.735	18.814	N.pl3	1	STI600	0.000	
22	 C22	12.589	15.682	17.851	C.2	1	STI600	0.000	
23	 C23	11.455	16.642	17.900	C.2	1	STI600	0.000	
24	 C25	11.079	17.330	16.713	C.2	1	STI600	0.000	
25	 C26	10.006	18.285	16.678	C.2	1	STI600	0.000	
26	 C27	9.298	18.536	17.869	C.2	1	STI600	0.000	
27	 C28	9.662	17.854	19.065	C.2	1	STI600	0.000	
28	 C29	10.736	16.908	19.112	C.2	1	STI600	0.000	
29	 O29	13.399	15.803	16.931	O.2	1	STI600	0.000	
30	 C46	8.196	19.529	17.832	C.3	1	STI600	0.000	
31	 N48	8.191	20.406	18.988	N.3	1	STI600	0.000	
32	 C49	6.952	21.230	19.053	C.3	1	STI600	0.000	
33	 C50	6.928	22.029	20.380	C.3	1	STI600	0.000	
34	 N51	8.150	22.812	20.447	N.3	1	STI600	0.000	
35	 C52	9.448	22.049	20.402	C.3	1	STI600	0.000	
36	 C53	9.455	21.152	19.106	C.3	1	STI600	0.000	
37	 C54	8.183	23.619	21.640	C.3	1	STI600	0.000	
38	 H11	23.767	11.950	13.704	 H	1	STI600	0.000	
39	 H21	22.694	10.615	12.085	 H	1	STI600	0.000	
40	 H41	19.207	10.741	13.993	 H	1	STI600	0.000	
41	 H61	22.430	12.757	15.509	 H	1	STI600	0.000	
42	H111	19.663	13.590	19.054	 H	1	STI600	0.000	
43	H121	21.216	12.992	17.334	 H	1	STI600	0.000	
44	H131	16.001	11.879	15.911	 H	1	STI600	0.000	
45	H151	14.583	14.034	16.957	 H	1	STI600	0.000	
46	H171	12.799	12.829	20.405	 H	1	STI600	0.000	
47	H181	14.184	10.896	20.433	 H	1	STI600	0.000	
48	H201	15.820	9.543	19.600	 H	1	STI600	0.000	
49	H202	17.012	10.296	18.878	 H	1	STI600	0.000	
50	H203	15.933	9.515	18.021	 H	1	STI600	0.000	
51	H211	12.153	14.797	19.507	 H	1	STI600	0.000	
52	H251	11.566	17.147	15.895	 H	1	STI600	0.000	
53	H261	9.775	18.745	15.856	 H	1	STI600	0.000	
54	H281	9.164	18.037	19.877	 H	1	STI600	0.000	
55	H291	10.970	16.460	19.940	 H	1	STI600	0.000	
56	H461	7.347	19.062	17.781	 H	1	STI600	0.000	
57	H462	8.274	20.063	17.026	 H	1	STI600	0.000	
58	H491	6.170	20.659	18.994	 H	1	STI600	0.000	
59	H492	6.917	21.838	18.298	 H	1	STI600	0.000	
60	H501	6.151	22.608	20.415	 H	1	STI600	0.000	
61	H502	6.867	21.427	21.138	 H	1	STI600	0.000	
62	H521	10.199	22.662	20.392	 H	1	STI600	0.000	
63	H522	9.543	21.498	21.194	 H	1	STI600	0.000	
64	H531	9.583	21.708	18.322	 H	1	STI600	0.000	
65	H532	10.201	20.532	19.139	 H	1	STI600	0.000	
66	H541	7.361	24.130	21.708	 H	1	STI600	0.000	
67	H542	8.938	24.226	21.599	 H	1	STI600	0.000	
68	H543	8.272	23.045	22.417	 H	1	STI600	0.000	
@<TRIPOS>BOND
1 1 2 ar
2 1 6 ar
3 1 38 1
4 2 39 1
5 2 3 ar
6 3 4 ar
7 4 40 1
8 4 5 ar
9 5 7 1
10 5 6 ar
11 6 41 1
12 7 8 ar
13 7 12 ar
14 8 9 ar
15 9 13 1
16 9 10 ar
17 10 11 ar
18 11 42 1
19 11 12 ar
20 12 43 1
21 13 14 1
22 13 44 1
23 14 15 ar
24 14 19 ar
25 15 45 1
26 15 16 ar
27 16 21 1
28 16 17 ar
29 17 46 1
30 17 18 ar
31 18 47 1
32 18 19 ar
33 19 20 1
34 20 48 1
35 20 49 1
36 20 50 1
37 21 22 1
38 21 51 1
39 22 23 1
40 22 29 2
41 23 24 ar
42 23 28 ar
43 24 25 ar
44 24 52 1
45 25 26 ar
46 25 53 1
47 26 27 ar
48 26 30 1
49 27 28 ar
50 27 54 1
51 28 55 1
52 30 31 1
53 30 56 1
54 30 57 1
55 31 32 1
56 31 36 1
57 32 58 1
58 32 59 1
59 32 33 1
60 33 60 1
61 33 61 1
62 33 34 1
63 34 37 1
64 34 35 1
65 35 62 1
66 35 63 1
67 35 36 1
68 36 64 1
69 36 65 1
70 37 66 1
71 37 67 1
72 37 68 1
@<TRIPOS>SUBSTRUCTURE
1	STI600	1	GROUP	1 A	STI
