# created with PyMOL 2.3.4
@<TRIPOS>MOLECULE
1DBB_LH
52 55 1                 
SMALL
USER_CHARGES
@<TRIPOS>ATOM
1	  C1	-19.912	42.850	-15.118	C.3	1	STR229	0.000	
2	  C2	-18.714	42.211	-15.785	C.3	1	STR229	0.000	
3	  C3	-17.558	43.190	-15.572	C.2	1	STR229	0.000	
4	  O3	-16.837	43.609	-16.500	O.2	1	STR229	0.000	
5	  C4	-17.307	43.563	-14.292	C.3	1	STR229	0.000	
6	  C5	-18.334	43.526	-13.328	C.3	1	STR229	0.000	
7	  C6	-18.125	43.894	-11.889	C.3	1	STR229	0.000	
8	  C7	-19.120	44.888	-11.504	C.3	1	STR229	0.000	
9	  C8	-20.519	44.436	-11.720	C.3	1	STR229	0.000	
10	  C9	-20.739	44.111	-13.194	C.3	1	STR229	0.000	
11	 C10	-19.746	43.047	-13.612	C.3	1	STR229	0.000	
12	 C11	-22.127	43.660	-13.471	C.3	1	STR229	0.000	
13	 C12	-23.071	44.667	-12.962	C.3	1	STR229	0.000	
14	 C13	-22.888	45.143	-11.460	C.3	1	STR229	0.000	
15	 C14	-21.466	45.578	-11.309	C.3	1	STR229	0.000	
16	 C15	-21.560	46.395	-10.012	C.3	1	STR229	0.000	
17	 C16	-22.971	46.958	-9.929	C.3	1	STR229	0.000	
18	 C17	-23.758	46.312	-11.052	C.3	1	STR229	0.000	
19	 C18	-23.128	44.001	-10.470	C.3	1	STR229	0.000	
20	 C19	-19.950	41.684	-12.970	C.3	1	STR229	0.000	
21	 C20	-25.194	46.131	-10.728	C.2	1	STR229	0.000	
22	 O20	-25.579	46.038	-9.586	O.2	1	STR229	0.000	
23	 C21	-26.221	46.193	-11.797	C.3	1	STR229	0.000	
24	  H4	-16.417	43.856	-14.040	 H	1	STR229	0.000	
25	  H8	-20.693	43.641	-11.191	 H	1	STR229	0.000	
26	  H9	-20.602	44.922	-13.709	 H	1	STR229	0.000	
27	 H11	-20.694	42.299	-15.280	 H	1	STR229	0.000	
28	 H12	-20.081	43.711	-15.532	 H	1	STR229	0.000	
29	 H17	-23.903	46.851	-11.845	 H	1	STR229	0.000	
30	 H21	-18.877	42.064	-16.730	 H	1	STR229	0.000	
31	 H22	-18.516	41.346	-15.393	 H	1	STR229	0.000	
32	 H61	-17.231	44.247	-11.760	 H	1	STR229	0.000	
33	 H62	-18.203	43.107	-11.327	 H	1	STR229	0.000	
34	 H71	-18.968	45.701	-12.010	 H	1	STR229	0.000	
35	 H72	-19.000	45.110	-10.568	 H	1	STR229	0.000	
36	H111	-22.291	42.803	-13.047	 H	1	STR229	0.000	
37	H112	-22.254	43.534	-14.424	 H	1	STR229	0.000	
38	H121	-23.969	44.312	-13.057	 H	1	STR229	0.000	
39	H122	-23.013	45.449	-13.534	 H	1	STR229	0.000	
40	H151	-20.906	47.111	-10.012	 H	1	STR229	0.000	
41	H152	-21.369	45.837	-9.242	 H	1	STR229	0.000	
42	H161	-22.964	47.923	-10.023	 H	1	STR229	0.000	
43	H162	-23.372	46.760	-9.068	 H	1	STR229	0.000	
44	H181	-23.008	44.327	-9.564	 H	1	STR229	0.000	
45	H182	-22.496	43.285	-10.642	 H	1	STR229	0.000	
46	H183	-24.032	43.666	-10.575	 H	1	STR229	0.000	
47	H191	-19.853	41.761	-12.008	 H	1	STR229	0.000	
48	H192	-19.288	41.063	-13.312	 H	1	STR229	0.000	
49	H193	-20.839	41.357	-13.180	 H	1	STR229	0.000	
50	H211	-27.100	46.054	-11.410	 H	1	STR229	0.000	
51	H212	-26.045	45.502	-12.455	 H	1	STR229	0.000	
52	H213	-26.190	47.063	-12.226	 H	1	STR229	0.000	
@<TRIPOS>BOND
1 1 2 1
2 1 11 1
3 1 27 1
4 1 28 1
5 2 3 1
6 2 30 1
7 2 31 1
8 3 4 2
9 3 5 1
10 5 6 1
11 5 24 1
12 6 7 1
13 6 11 1
14 7 8 1
15 7 32 1
16 7 33 1
17 8 9 1
18 8 34 1
19 8 35 1
20 9 10 1
21 9 15 1
22 9 25 1
23 10 11 1
24 10 12 1
25 10 26 1
26 11 20 1
27 12 13 1
28 12 36 1
29 12 37 1
30 13 14 1
31 13 38 1
32 13 39 1
33 14 15 1
34 14 18 1
35 14 19 1
36 15 16 1
37 16 17 1
38 16 40 1
39 16 41 1
40 17 18 1
41 17 42 1
42 17 43 1
43 18 21 1
44 18 29 1
45 19 44 1
46 19 45 1
47 19 46 1
48 20 47 1
49 20 48 1
50 20 49 1
51 21 22 2
52 21 23 1
53 23 50 1
54 23 51 1
55 23 52 1
@<TRIPOS>SUBSTRUCTURE
1	STR229	1	GROUP	1 H	STR
