# created with PyMOL 2.3.4
@<TRIPOS>MOLECULE
2z7r
39 40 1                 
SMALL
USER_CHARGES
@<TRIPOS>ATOM
1	  C1	-4.225	-5.316	25.507	C.2	1	STU1	0.000	
2	  C2	-5.324	-4.494	25.830	C.2	1	STU1	0.000	
3	  C3	-5.121	-3.128	26.227	C.2	1	STU1	0.000	
4	  N3	-1.694	-5.307	25.323	N.pl3	1	STU1	0.000	
5	  C4	-3.839	-2.590	26.300	C.2	1	STU1	0.000	
6	  N4	-0.966	-8.048	21.363	N.3	1	STU1	0.000	
7	  O4	-0.162	-7.130	25.432	O.3	1	STU1	0.000	
8	  C5	-2.701	-3.361	25.988	C.2	1	STU1	0.000	
9	  O6	0.380	-5.655	22.496	O.3	1	STU1	0.000	
10	 C20	-2.910	-4.737	25.587	C.2	1	STU1	0.000	
11	 C21	0.990	-6.875	24.601	C.3	1	STU1	0.000	
12	 C22	0.696	-6.966	23.033	C.3	1	STU1	0.000	
13	 C23	-0.616	-7.824	22.883	C.3	1	STU1	0.000	
14	 C24	-1.819	-7.120	23.564	C.3	1	STU1	0.000	
15	 C25	-1.489	-6.741	25.047	C.3	1	STU1	0.000	
16	 C26	1.904	-8.055	24.941	C.3	1	STU1	0.000	
17	 C27	1.395	-5.169	21.641	C.3	1	STU1	0.000	
18	 C28	-1.630	-9.372	21.172	C.3	1	STU1	0.000	
19	 H01	-6.335	-4.898	25.778	 H	1	STU1	0.000	
20	 H02	-5.981	-2.506	26.474	 H	1	STU1	0.000	
21	 H03	-3.713	-1.551	26.605	 H	1	STU1	0.000	
22	 H04	-4.367	-6.354	25.207	 H	1	STU1	0.000	
23	 H05	-0.117	-8.019	20.817	 H	1	STU1	0.000	
24	 H06	-1.699	-2.937	26.046	 H	1	STU1	0.000	
25	 H07	1.375	-5.872	24.784	 H	1	STU1	0.000	
26	 H08	1.562	-7.381	22.517	 H	1	STU1	0.000	
27	 H09	-0.432	-8.784	23.365	 H	1	STU1	0.000	
28	 H10	-2.665	-7.807	23.564	 H	1	STU1	0.000	
29	 H11	-2.061	-6.213	23.010	 H	1	STU1	0.000	
30	 H12	-2.197	-7.307	25.653	 H	1	STU1	0.000	
31	 H13	2.823	-7.683	25.393	 H	1	STU1	0.000	
32	 H14	1.397	-8.718	25.642	 H	1	STU1	0.000	
33	 H15	2.144	-8.604	24.030	 H	1	STU1	0.000	
34	 H16	2.305	-5.750	21.791	 H	1	STU1	0.000	
35	 H17	1.072	-5.261	20.604	 H	1	STU1	0.000	
36	 H18	1.592	-4.121	21.869	 H	1	STU1	0.000	
37	 H19	-2.581	-9.230	20.659	 H	1	STU1	0.000	
38	 H20	-0.988	-10.018	20.574	 H	1	STU1	0.000	
39	 H21	-1.807	-9.834	22.143	 H	1	STU1	0.000	
@<TRIPOS>BOND
1 1 2 ar
2 1 10 ar
3 1 22 1
4 2 3 ar
5 2 19 1
6 3 5 ar
7 3 20 1
8 4 10 1
9 4 15 1
10 5 8 ar
11 5 21 1
12 6 13 1
13 6 18 1
14 6 23 1
15 7 11 1
16 7 15 1
17 8 10 ar
18 8 24 1
19 9 12 1
20 9 17 1
21 11 12 1
22 11 16 1
23 11 25 1
24 12 13 1
25 12 26 1
26 13 14 1
27 13 27 1
28 14 15 1
29 14 28 1
30 14 29 1
31 15 30 1
32 16 31 1
33 16 32 1
34 16 33 1
35 17 34 1
36 17 35 1
37 17 36 1
38 18 37 1
39 18 38 1
40 18 39 1
@<TRIPOS>SUBSTRUCTURE
1	STU1	1	GROUP	1 A	STU
