# created with PyMOL 2.3.4
@<TRIPOS>MOLECULE
3LS4_LH
53 55 1                 
SMALL
USER_CHARGES
@<TRIPOS>ATOM
1	  C1	29.015	19.976	-32.042	C.2	1	TCI220	0.000	
2	  O1	27.189	21.494	-31.901	O.3	1	TCI220	0.000	
3	  C2	30.138	19.547	-32.725	C.2	1	TCI220	0.000	
4	  O2	30.036	21.790	-35.613	O.3	1	TCI220	0.000	
5	  C3	30.493	20.170	-33.928	C.2	1	TCI220	0.000	
6	  C4	29.710	21.246	-34.417	C.2	1	TCI220	0.000	
7	  C5	28.609	21.685	-33.679	C.2	1	TCI220	0.000	
8	  C6	28.293	21.060	-32.529	C.2	1	TCI220	0.000	
9	  C7	27.552	22.775	-34.067	C.3	1	TCI220	0.000	
10	  C8	28.350	23.863	-34.862	C.3	1	TCI220	0.000	
11	  C9	27.947	25.191	-34.904	C.3	1	TCI220	0.000	
12	 C10	26.704	25.538	-34.147	C.3	1	TCI220	0.000	
13	 C11	25.758	24.387	-33.804	C.3	1	TCI220	0.000	
14	 C12	26.644	23.436	-32.969	C.3	1	TCI220	0.000	
15	 C13	25.982	22.199	-32.414	C.3	1	TCI220	0.000	
16	 C14	25.116	22.560	-31.212	C.3	1	TCI220	0.000	
17	 C15	25.303	21.274	-33.453	C.3	1	TCI220	0.000	
18	 C16	28.778	26.310	-35.542	C.3	1	TCI220	0.000	
19	 C17	30.952	18.410	-32.053	C.3	1	TCI220	0.000	
20	 C18	30.161	17.128	-31.922	C.3	1	TCI220	0.000	
21	 C19	30.994	16.091	-31.118	C.3	1	TCI220	0.000	
22	 C20	30.305	14.730	-31.022	C.3	1	TCI220	0.000	
23	 C21	31.214	13.771	-30.227	C.3	1	TCI220	0.000	
24	 H01	29.942	22.744	-35.567	 H	1	TCI220	0.000	
25	  H1	28.733	19.525	-31.231	 H	1	TCI220	0.000	
26	  H3	31.270	19.867	-34.424	 H	1	TCI220	0.000	
27	  H7	26.867	22.300	-34.563	 H	1	TCI220	0.000	
28	  H8	29.152	23.601	-35.341	 H	1	TCI220	0.000	
29	 H10	26.208	26.192	-34.664	 H	1	TCI220	0.000	
30	 H11	25.419	23.952	-34.602	 H	1	TCI220	0.000	
31	 H12	27.008	23.960	-32.238	 H	1	TCI220	0.000	
32	 H14	24.319	23.022	-31.515	 H	1	TCI220	0.000	
33	 H15	24.511	21.709	-33.805	 H	1	TCI220	0.000	
34	 H16	28.305	27.153	-35.457	 H	1	TCI220	0.000	
35	 H17	31.240	18.700	-31.173	 H	1	TCI220	0.000	
36	 H18	29.948	16.776	-32.800	 H	1	TCI220	0.000	
37	 H19	31.154	16.433	-30.224	 H	1	TCI220	0.000	
38	 H20	30.136	14.375	-31.909	 H	1	TCI220	0.000	
39	 H21	30.787	12.903	-30.159	 H	1	TCI220	0.000	
40	H10A	26.966	25.970	-33.319	 H	1	TCI220	0.000	
41	H11A	24.988	24.694	-33.300	 H	1	TCI220	0.000	
42	H14A	25.616	23.137	-30.614	 H	1	TCI220	0.000	
43	H14B	24.861	21.751	-30.742	 H	1	TCI220	0.000	
44	H15A	25.051	20.439	-33.028	 H	1	TCI220	0.000	
45	H15B	25.921	21.093	-34.178	 H	1	TCI220	0.000	
46	H16A	28.920	26.113	-36.481	 H	1	TCI220	0.000	
47	H16B	29.635	26.374	-35.092	 H	1	TCI220	0.000	
48	H17A	31.753	18.240	-32.572	 H	1	TCI220	0.000	
49	H18A	29.319	17.300	-31.473	 H	1	TCI220	0.000	
50	H19A	31.861	15.982	-31.539	 H	1	TCI220	0.000	
51	H20A	29.444	14.819	-30.583	 H	1	TCI220	0.000	
52	H21A	31.362	14.128	-29.337	 H	1	TCI220	0.000	
53	H21B	32.065	13.678	-30.684	 H	1	TCI220	0.000	
@<TRIPOS>BOND
1 1 3 ar
2 1 8 ar
3 1 25 1
4 2 8 1
5 2 15 1
6 3 5 ar
7 3 19 1
8 4 6 1
9 4 24 1
10 5 6 ar
11 5 26 1
12 6 7 ar
13 7 8 ar
14 7 9 1
15 9 10 1
16 9 14 1
17 9 27 1
18 10 11 1
19 10 28 1
20 11 12 1
21 11 18 1
22 12 13 1
23 12 29 1
24 12 40 1
25 13 14 1
26 13 30 1
27 13 41 1
28 14 15 1
29 14 31 1
30 15 16 1
31 15 17 1
32 16 32 1
33 16 42 1
34 16 43 1
35 17 33 1
36 17 44 1
37 17 45 1
38 18 34 1
39 18 46 1
40 18 47 1
41 19 20 1
42 19 35 1
43 19 48 1
44 20 21 1
45 20 36 1
46 20 49 1
47 21 22 1
48 21 37 1
49 21 50 1
50 22 23 1
51 22 38 1
52 22 51 1
53 23 39 1
54 23 52 1
55 23 53 1
@<TRIPOS>SUBSTRUCTURE
1	TCI220	1	GROUP	1 H	TCI
