# created with PyMOL 2.3.4
@<TRIPOS>MOLECULE
obj01
27 30 1                 
SMALL
USER_CHARGES
@<TRIPOS>ATOM
1	  C1	-0.830	32.546	26.491	C.2	1	TUH301	0.000	
2	  C2	0.438	32.946	25.788	C.2	1	TUH301	0.000	
3	  C3	0.369	33.745	24.512	C.2	1	TUH301	0.000	
4	  C4	-0.988	34.120	23.982	C.2	1	TUH301	0.000	
5	  C5	-2.259	33.747	24.705	C.2	1	TUH301	0.000	
6	  C6	-2.187	32.932	25.962	C.2	1	TUH301	0.000	
7	  C7	-1.056	34.963	22.748	C.2	1	TUH301	0.000	
8	  N8	-0.376	36.191	22.699	N.2	1	TUH301	0.000	
9	  C9	-0.626	36.811	21.458	C.2	1	TUH301	0.000	
10	 N10	-1.484	35.921	20.711	N.2	1	TUH301	0.000	
11	 N11	-1.767	34.793	21.521	N.2	1	TUH301	0.000	
12	 C12	0.419	36.771	23.730	C.2	1	TUH301	0.000	
13	 C13	-0.345	37.422	24.852	C.2	1	TUH301	0.000	
14	 C14	1.942	36.749	23.676	C.2	1	TUH301	0.000	
15	 C15	0.423	38.074	25.976	C.2	1	TUH301	0.000	
16	 C16	1.945	38.064	25.943	C.2	1	TUH301	0.000	
17	 C17	2.680	37.429	24.843	C.2	1	TUH301	0.000	
18	 C18	4.122	37.608	25.107	C.2	1	TUH301	0.000	
19	 N19	2.906	38.642	26.914	N.2	1	TUH301	0.000	
20	 C20	4.262	38.211	26.498	C.2	1	TUH301	0.000	
21	 C21	2.568	39.367	28.114	C.3	1	TUH301	0.000	
22	 C22	1.780	32.485	26.308	C.3	1	TUH301	0.000	
23	 C23	1.965	31.142	25.586	C.3	1	TUH301	0.000	
24	 C24	2.927	33.426	25.942	C.3	1	TUH301	0.000	
25	 O25	-0.761	31.804	27.656	O.3	1	TUH301	0.000	
26	 O26	-3.492	34.114	24.209	O.3	1	TUH301	0.000	
27	 O27	-0.181	37.854	21.142	O.2	1	TUH301	0.000	
@<TRIPOS>BOND
1 1 2 ar
2 1 25 1
3 2 3 ar
4 3 4 ar
5 4 5 ar
6 4 7 1
7 5 6 ar
8 5 26 1
9 1 6 ar
10 7 8 ar
11 7 11 ar
12 8 9 ar
13 8 12 1
14 9 10 ar
15 9 27 2
16 10 11 ar
17 12 14 ar
18 12 13 ar
19 13 15 ar
20 15 16 ar
21 16 19 ar
22 14 17 ar
23 16 17 ar
24 17 18 ar
25 18 20 ar
26 19 20 ar
27 19 21 1
28 2 22 1
29 22 23 1
30 22 24 1
@<TRIPOS>SUBSTRUCTURE
1	TUH301	1	GROUP	1 A	TUH
