# created with PyMOL 2.3.4
@<TRIPOS>MOLECULE
1UDT_A
63 66 1                 
SMALL
USER_CHARGES
@<TRIPOS>ATOM
1	  C1	5.234	64.623	87.228	C.3	1	VIA1000	0.000	
2	  C2	5.304	65.803	86.273	C.3	1	VIA1000	0.000	
3	  O3	4.019	65.830	85.620	O.3	1	VIA1000	0.000	
4	  C4	3.609	66.806	84.633	C.2	1	VIA1000	0.000	
5	  C5	4.466	67.911	84.162	C.2	1	VIA1000	0.000	
6	  C6	3.952	68.860	83.180	C.2	1	VIA1000	0.000	
7	  C7	2.568	68.758	82.617	C.2	1	VIA1000	0.000	
8	  C8	1.731	67.655	83.084	C.2	1	VIA1000	0.000	
9	  C9	2.223	66.702	84.058	C.2	1	VIA1000	0.000	
10	 S10	2.023	69.831	81.561	S.O2	1	VIA1000	0.000	
11	 O11	2.313	69.600	80.294	O.2	1	VIA1000	0.000	
12	 O12	0.712	69.861	81.611	O.2	1	VIA1000	0.000	
13	 N14	2.690	71.159	82.127	N.3	1	VIA1000	0.000	
14	 C15	3.539	72.092	81.285	C.3	1	VIA1000	0.000	
15	 C16	2.752	73.145	80.416	C.3	1	VIA1000	0.000	
16	 N17	1.426	73.686	80.956	N.3	1	VIA1000	0.000	
17	 C18	0.820	73.057	82.178	C.3	1	VIA1000	0.000	
18	 C19	1.724	72.087	82.963	C.3	1	VIA1000	0.000	
19	 C20	1.557	75.156	81.201	C.3	1	VIA1000	0.000	
20	 C21	1.308	65.684	84.442	C.2	1	VIA1000	0.000	
21	 N22	1.125	65.474	85.816	N.2	1	VIA1000	0.000	
22	 C23	0.260	64.519	86.346	C.2	1	VIA1000	0.000	
23	 C24	-0.495	63.700	85.440	C.2	1	VIA1000	0.000	
24	 C25	-0.293	63.928	84.046	C.2	1	VIA1000	0.000	
25	 N26	0.597	64.907	83.520	N.2	1	VIA1000	0.000	
26	 O27	0.180	64.422	87.549	O.2	1	VIA1000	0.000	
27	 N28	-1.414	62.696	85.612	N.2	1	VIA1000	0.000	
28	 N29	-1.798	62.280	84.370	N.2	1	VIA1000	0.000	
29	 C30	-1.114	63.031	83.405	C.2	1	VIA1000	0.000	
30	 C31	-1.948	62.111	86.845	C.3	1	VIA1000	0.000	
31	 C32	-1.261	62.864	81.927	C.3	1	VIA1000	0.000	
32	 C33	-0.169	61.792	81.589	C.3	1	VIA1000	0.000	
33	 C34	-0.132	61.467	80.120	C.3	1	VIA1000	0.000	
34	  H5	5.369	68.006	84.504	 H	1	VIA1000	0.000	
35	  H6	4.527	69.582	82.881	 H	1	VIA1000	0.000	
36	  H8	0.831	67.559	82.736	 H	1	VIA1000	0.000	
37	 H11	6.074	64.544	87.707	 H	1	VIA1000	0.000	
38	 H12	5.070	63.809	86.726	 H	1	VIA1000	0.000	
39	 H13	4.513	64.762	87.862	 H	1	VIA1000	0.000	
40	 H21	5.474	66.631	86.749	 H	1	VIA1000	0.000	
41	 H22	1.573	65.963	86.364	 H	1	VIA1000	0.000	
42	H151	4.088	71.555	80.692	 H	1	VIA1000	0.000	
43	H152	4.143	72.571	81.874	 H	1	VIA1000	0.000	
44	H161	3.340	73.901	80.264	 H	1	VIA1000	0.000	
45	H162	2.577	72.743	79.551	 H	1	VIA1000	0.000	
46	H181	0.539	73.765	82.778	 H	1	VIA1000	0.000	
47	H182	0.020	72.579	81.910	 H	1	VIA1000	0.000	
48	H191	2.265	72.610	83.575	 H	1	VIA1000	0.000	
49	H192	1.155	71.518	83.504	 H	1	VIA1000	0.000	
50	H201	1.947	75.581	80.421	 H	1	VIA1000	0.000	
51	H202	2.128	75.306	81.970	 H	1	VIA1000	0.000	
52	H203	0.681	75.535	81.370	 H	1	VIA1000	0.000	
53	H22A	6.022	65.693	85.631	 H	1	VIA1000	0.000	
54	H311	-1.545	62.548	87.612	 H	1	VIA1000	0.000	
55	H312	-1.743	61.163	86.869	 H	1	VIA1000	0.000	
56	H313	-2.910	62.234	86.871	 H	1	VIA1000	0.000	
57	H321	-2.150	62.561	81.686	 H	1	VIA1000	0.000	
58	H322	-1.107	63.696	81.454	 H	1	VIA1000	0.000	
59	H331	0.701	62.118	81.869	 H	1	VIA1000	0.000	
60	H332	-0.345	60.983	82.094	 H	1	VIA1000	0.000	
61	H341	0.554	60.802	79.953	 H	1	VIA1000	0.000	
62	H342	0.067	62.271	79.615	 H	1	VIA1000	0.000	
63	H343	-0.994	61.118	79.844	 H	1	VIA1000	0.000	
@<TRIPOS>BOND
1 1 2 1
2 1 37 1
3 1 38 1
4 1 39 1
5 2 3 1
6 2 40 1
7 2 53 1
8 3 4 1
9 4 5 ar
10 4 9 ar
11 5 6 ar
12 5 34 1
13 6 7 ar
14 6 35 1
15 7 8 ar
16 7 10 1
17 8 9 ar
18 8 36 1
19 9 20 1
20 10 11 2
21 10 12 2
22 10 13 1
23 13 14 1
24 13 18 1
25 14 15 1
26 14 42 1
27 14 43 1
28 15 16 1
29 15 44 1
30 15 45 1
31 16 17 1
32 16 19 1
33 17 18 1
34 17 46 1
35 17 47 1
36 18 48 1
37 18 49 1
38 19 50 1
39 19 51 1
40 19 52 1
41 20 21 ar
42 20 25 ar
43 21 22 ar
44 21 41 1
45 22 23 ar
46 22 26 2
47 23 24 ar
48 23 27 ar
49 24 25 ar
50 24 29 ar
51 27 28 ar
52 27 30 1
53 28 29 ar
54 29 31 1
55 30 54 1
56 30 55 1
57 30 56 1
58 31 32 1
59 31 57 1
60 31 58 1
61 32 33 1
62 32 59 1
63 32 60 1
64 33 61 1
65 33 62 1
66 33 63 1
@<TRIPOS>SUBSTRUCTURE
1	VIA1000	1	GROUP	1 A	VIA
