# created with PyMOL 2.3.4
@<TRIPOS>MOLECULE
obj01
31 33 1                 
SMALL
USER_CHARGES
@<TRIPOS>ATOM
1	  C1	-39.022	-64.849	-20.965	C.2	1	Y70502	0.000	
2	  C2	-37.959	-64.259	-20.299	C.2	1	Y70502	0.000	
3	  C3	-36.929	-63.668	-21.013	C.2	1	Y70502	0.000	
4	  C4	-36.973	-63.689	-22.408	C.2	1	Y70502	0.000	
5	  C5	-38.019	-64.280	-23.100	C.2	1	Y70502	0.000	
6	  C6	-39.073	-64.891	-22.367	C.2	1	Y70502	0.000	
7	  C7	-36.015	-63.141	-23.399	C.2	1	Y70502	0.000	
8	  N8	-36.561	-63.422	-24.658	N.2	1	Y70502	0.000	
9	  C9	-37.768	-64.127	-24.548	C.2	1	Y70502	0.000	
10	 N10	-40.099	-65.556	-23.007	N.pl3	1	Y70502	0.000	
11	 O11	-38.414	-64.553	-25.481	O.2	1	Y70502	0.000	
12	 C12	-35.936	-63.024	-25.921	C.3	1	Y70502	0.000	
13	 O13	-34.954	-62.573	-23.208	O.2	1	Y70502	0.000	
14	 C14	-35.207	-64.239	-26.466	C.3	1	Y70502	0.000	
15	 C15	-36.965	-62.471	-26.890	C.2	1	Y70502	0.000	
16	 N16	-36.848	-62.827	-28.210	N.pl3	1	Y70502	0.000	
17	 C17	-35.839	-63.557	-28.775	C.2	1	Y70502	0.000	
18	 C18	-34.714	-63.955	-27.875	C.3	1	Y70502	0.000	
19	 O19	-37.838	-61.693	-26.516	O.2	1	Y70502	0.000	
20	 O20	-35.891	-63.871	-29.959	O.2	1	Y70502	0.000	
21	  H1	-39.846	-65.253	-20.380	 H	1	Y70502	0.000	
22	  H2	-37.931	-64.273	-19.210	 H	1	Y70502	0.000	
23	  H3	-36.089	-63.191	-20.510	 H	1	Y70502	0.000	
24	 H12	-35.224	-62.219	-25.741	 H	1	Y70502	0.000	
25	 H16	-37.588	-62.511	-28.829	 H	1	Y70502	0.000	
26	H101	-40.136	-65.628	-24.019	 H	1	Y70502	0.000	
27	H102	-40.846	-65.994	-22.478	 H	1	Y70502	0.000	
28	H141	-35.864	-65.105	-26.473	 H	1	Y70502	0.000	
29	H142	-34.386	-64.512	-25.807	 H	1	Y70502	0.000	
30	H181	-34.150	-64.794	-28.281	 H	1	Y70502	0.000	
31	H182	-34.014	-63.122	-27.871	 H	1	Y70502	0.000	
@<TRIPOS>BOND
1 1 2 ar
2 1 6 ar
3 1 21 1
4 2 3 ar
5 2 22 1
6 3 4 ar
7 3 23 1
8 4 5 ar
9 4 7 ar
10 5 6 ar
11 5 9 ar
12 6 10 1
13 7 8 ar
14 7 13 2
15 8 9 ar
16 8 12 1
17 9 11 2
18 10 26 1
19 10 27 1
20 12 14 1
21 12 15 1
22 12 24 1
23 14 18 1
24 14 28 1
25 14 29 1
26 15 16 1
27 15 19 2
28 16 17 1
29 16 25 1
30 17 18 1
31 17 20 2
32 18 30 1
33 18 31 1
@<TRIPOS>SUBSTRUCTURE
1	Y70502	1	GROUP	1 B	Y70
