# created with PyMOL 2.3.4
@<TRIPOS>MOLECULE
obj01
37 41 1                 
SMALL
USER_CHARGES
@<TRIPOS>ATOM
1	  C1	22.827	11.725	13.780	C.2	1	STI600	0.000	
2	  C2	22.176	10.931	12.842	C.2	1	STI600	0.000	
3	  N3	20.892	10.570	12.904	N.2	1	STI600	0.000	
4	  C4	20.140	11.001	13.947	C.2	1	STI600	0.000	
5	  C5	20.668	11.809	14.959	C.2	1	STI600	0.000	
6	  C6	22.036	12.177	14.839	C.2	1	STI600	0.000	
7	  C7	19.778	12.261	16.119	C.2	1	STI600	0.000	
8	  N8	18.433	12.021	15.977	N.2	1	STI600	0.000	
9	  C9	17.593	12.383	16.962	C.2	1	STI600	0.000	
10	 N10	18.047	12.944	18.070	N.2	1	STI600	0.000	
11	 C11	19.347	13.177	18.235	C.2	1	STI600	0.000	
12	 C12	20.266	12.828	17.228	C.2	1	STI600	0.000	
13	 N13	16.254	12.125	16.695	N.pl3	1	STI600	0.000	
14	 C14	15.346	12.271	17.710	C.2	1	STI600	0.000	
15	 C15	14.506	13.401	17.688	C.2	1	STI600	0.000	
16	 C16	13.560	13.633	18.698	C.2	1	STI600	0.000	
17	 C17	13.451	12.699	19.699	C.2	1	STI600	0.000	
18	 C18	14.285	11.539	19.714	C.2	1	STI600	0.000	
19	 C19	15.234	11.305	18.732	C.2	1	STI600	0.000	
20	 C20	16.075	10.053	18.815	C.3	1	STI600	0.000	
21	 N21	12.659	14.735	18.814	N.pl3	1	STI600	0.000	
22	 C22	12.589	15.682	17.851	C.2	1	STI600	0.000	
23	 C23	11.455	16.642	17.900	C.2	1	STI600	0.000	
24	 C25	11.079	17.330	16.713	C.2	1	STI600	0.000	
25	 C26	10.006	18.285	16.678	C.2	1	STI600	0.000	
26	 C27	9.298	18.536	17.869	C.2	1	STI600	0.000	
27	 C28	9.662	17.854	19.065	C.2	1	STI600	0.000	
28	 C29	10.736	16.908	19.112	C.2	1	STI600	0.000	
29	 O29	13.399	15.803	16.931	O.2	1	STI600	0.000	
30	 C46	8.196	19.529	17.832	C.3	1	STI600	0.000	
31	 N48	8.191	20.406	18.988	N.3	1	STI600	0.000	
32	 C49	6.952	21.230	19.053	C.3	1	STI600	0.000	
33	 C50	6.928	22.029	20.380	C.3	1	STI600	0.000	
34	 N51	8.150	22.812	20.447	N.3	1	STI600	0.000	
35	 C52	9.448	22.049	20.402	C.3	1	STI600	0.000	
36	 C53	9.455	21.152	19.106	C.3	1	STI600	0.000	
37	 C54	8.183	23.619	21.640	C.3	1	STI600	0.000	
@<TRIPOS>BOND
1 1 2 ar
2 1 6 ar
3 2 3 ar
4 3 4 ar
5 4 5 ar
6 5 7 1
7 5 6 ar
8 7 8 ar
9 7 12 ar
10 8 9 ar
11 9 13 1
12 9 10 ar
13 10 11 ar
14 11 12 ar
15 13 14 1
16 14 15 ar
17 14 19 ar
18 15 16 ar
19 16 21 1
20 16 17 ar
21 17 18 ar
22 18 19 ar
23 19 20 1
24 21 22 1
25 22 23 1
26 22 29 2
27 23 24 ar
28 23 28 ar
29 24 25 ar
30 25 26 ar
31 26 27 ar
32 26 30 1
33 27 28 ar
34 30 31 1
35 31 32 1
36 31 36 1
37 32 33 1
38 33 34 1
39 34 37 1
40 34 35 1
41 35 36 1
@<TRIPOS>SUBSTRUCTURE
1	STI600	1	GROUP	1 A	STI
